Circuit: * C:\Users\flori\GoogleDrive\HSR\BA-OST-2022\audio-beamformer-hardware\Simulations\MA40P16 Transducer impedance\MA40P16 Transducer impedance.asc


Date: Mon Mar 28 08:10:56 2022
Total elapsed time: 0.047 seconds.

tnom = 27
temp = 27
method = trap
totiter = 0
traniter = 0
tranpoints = 0
accept = 0
rejected = 0
matrix size = 6
fillins = 0
solver = Normal

